*SPEF "ieee 1481-1999"
*DESIGN "basic"
*DATE "11:11:11 Fri 11 11, 1111"
*VENDOR "OpenRCX"
*PROGRAM "Parallel Extraction"
*VERSION "1.0"
*DESIGN_FLOW "NAME_SCOPE LOCAL" "PIN_CAP NONE"
*DIVIDER /
*DELIMITER :
*BUS_DELIMITER []
*T_UNIT 1 NS
*C_UNIT 1 PF
*R_UNIT 1 OHM
*L_UNIT 1 HENRY

*NAME_MAP
*1 analog_io[0]
*2 analog_io[10]
*3 analog_io[11]
*4 analog_io[12]
*5 analog_io[13]
*6 analog_io[14]
*7 analog_io[15]
*8 analog_io[16]
*9 analog_io[17]
*10 analog_io[18]
*11 analog_io[19]
*12 analog_io[1]
*13 analog_io[20]
*14 analog_io[21]
*15 analog_io[22]
*16 analog_io[23]
*17 analog_io[24]
*18 analog_io[25]
*19 analog_io[26]
*20 analog_io[27]
*21 analog_io[28]
*22 analog_io[2]
*23 analog_io[3]
*24 analog_io[4]
*25 analog_io[5]
*26 analog_io[6]
*27 analog_io[7]
*28 analog_io[8]
*29 analog_io[9]
*30 io_in[0]
*31 io_in[10]
*32 io_in[11]
*33 io_in[12]
*34 io_in[13]
*35 io_in[14]
*36 io_in[15]
*37 io_in[16]
*38 io_in[17]
*39 io_in[18]
*40 io_in[19]
*41 io_in[1]
*42 io_in[20]
*43 io_in[21]
*44 io_in[22]
*45 io_in[23]
*46 io_in[24]
*47 io_in[25]
*48 io_in[26]
*49 io_in[27]
*50 io_in[28]
*51 io_in[29]
*52 io_in[2]
*53 io_in[30]
*54 io_in[31]
*55 io_in[32]
*56 io_in[33]
*57 io_in[34]
*58 io_in[35]
*59 io_in[36]
*60 io_in[37]
*61 io_in[3]
*62 io_in[4]
*63 io_in[5]
*64 io_in[6]
*65 io_in[7]
*66 io_in[8]
*67 io_in[9]
*68 net3
*69 net13
*70 net14
*71 net15
*72 net16
*73 net17
*74 net18
*75 net19
*76 net20
*77 net21
*78 net22
*79 net4
*80 net23
*81 net24
*82 net25
*83 net26
*84 net27
*85 net28
*86 net29
*87 net30
*88 net31
*89 net32
*90 net5
*91 net33
*92 net34
*93 net35
*94 net36
*95 net37
*96 net38
*97 net39
*98 net40
*99 net6
*100 net7
*101 net8
*102 net9
*103 net10
*104 net11
*105 net12
*106 net41
*107 net51
*108 net52
*109 net53
*110 net54
*111 net55
*112 net56
*113 net57
*114 net58
*115 net59
*116 net60
*117 net42
*118 net61
*119 net62
*120 net63
*121 net64
*122 net65
*123 net66
*124 net67
*125 net68
*126 net69
*127 net70
*128 net43
*129 net71
*130 net72
*131 net73
*132 net74
*133 net75
*134 net76
*135 net77
*136 net78
*137 net44
*138 net45
*139 net46
*140 net47
*141 net48
*142 net49
*143 net50
*144 la_data_in[0]
*145 la_data_in[100]
*146 la_data_in[101]
*147 la_data_in[102]
*148 la_data_in[103]
*149 la_data_in[104]
*150 la_data_in[105]
*151 la_data_in[106]
*152 la_data_in[107]
*153 la_data_in[108]
*154 la_data_in[109]
*155 la_data_in[10]
*156 la_data_in[110]
*157 la_data_in[111]
*158 la_data_in[112]
*159 la_data_in[113]
*160 la_data_in[114]
*161 la_data_in[115]
*162 la_data_in[116]
*163 la_data_in[117]
*164 la_data_in[118]
*165 la_data_in[119]
*166 la_data_in[11]
*167 la_data_in[120]
*168 la_data_in[121]
*169 la_data_in[122]
*170 la_data_in[123]
*171 la_data_in[124]
*172 la_data_in[125]
*173 la_data_in[126]
*174 la_data_in[127]
*175 la_data_in[12]
*176 la_data_in[13]
*177 la_data_in[14]
*178 la_data_in[15]
*179 la_data_in[16]
*180 la_data_in[17]
*181 la_data_in[18]
*182 la_data_in[19]
*183 la_data_in[1]
*184 la_data_in[20]
*185 la_data_in[21]
*186 la_data_in[22]
*187 la_data_in[23]
*188 la_data_in[24]
*189 la_data_in[25]
*190 la_data_in[26]
*191 la_data_in[27]
*192 la_data_in[28]
*193 la_data_in[29]
*194 la_data_in[2]
*195 la_data_in[30]
*196 la_data_in[31]
*197 la_data_in[32]
*198 la_data_in[33]
*199 la_data_in[34]
*200 la_data_in[35]
*201 la_data_in[36]
*202 la_data_in[37]
*203 la_data_in[38]
*204 la_data_in[39]
*205 la_data_in[3]
*206 la_data_in[40]
*207 la_data_in[41]
*208 la_data_in[42]
*209 la_data_in[43]
*210 la_data_in[44]
*211 la_data_in[45]
*212 la_data_in[46]
*213 la_data_in[47]
*214 la_data_in[48]
*215 la_data_in[49]
*216 la_data_in[4]
*217 la_data_in[50]
*218 la_data_in[51]
*219 la_data_in[52]
*220 la_data_in[53]
*221 la_data_in[54]
*222 la_data_in[55]
*223 la_data_in[56]
*224 la_data_in[57]
*225 la_data_in[58]
*226 la_data_in[59]
*227 la_data_in[5]
*228 la_data_in[60]
*229 la_data_in[61]
*230 la_data_in[62]
*231 la_data_in[63]
*232 la_data_in[64]
*233 la_data_in[65]
*234 la_data_in[66]
*235 la_data_in[67]
*236 la_data_in[68]
*237 la_data_in[69]
*238 la_data_in[6]
*239 la_data_in[70]
*240 la_data_in[71]
*241 la_data_in[72]
*242 la_data_in[73]
*243 la_data_in[74]
*244 la_data_in[75]
*245 la_data_in[76]
*246 la_data_in[77]
*247 la_data_in[78]
*248 la_data_in[79]
*249 la_data_in[7]
*250 la_data_in[80]
*251 la_data_in[81]
*252 la_data_in[82]
*253 la_data_in[83]
*254 la_data_in[84]
*255 la_data_in[85]
*256 la_data_in[86]
*257 la_data_in[87]
*258 la_data_in[88]
*259 la_data_in[89]
*260 la_data_in[8]
*261 la_data_in[90]
*262 la_data_in[91]
*263 la_data_in[92]
*264 la_data_in[93]
*265 la_data_in[94]
*266 la_data_in[95]
*267 la_data_in[96]
*268 la_data_in[97]
*269 la_data_in[98]
*270 la_data_in[99]
*271 la_data_in[9]
*272 net79
*273 net179
*274 net180
*275 net181
*276 net182
*277 net183
*278 net184
*279 net185
*280 net186
*281 net187
*282 net188
*283 net89
*284 net189
*285 net190
*286 net191
*287 net192
*288 net193
*289 net194
*290 net195
*291 net196
*292 net197
*293 net198
*294 net90
*295 net199
*296 net200
*297 net201
*298 net202
*299 net203
*300 net204
*301 net205
*302 net206
*303 net91
*304 net92
*305 net93
*306 net94
*307 net95
*308 net96
*309 net97
*310 net98
*311 net80
*312 net99
*313 net100
*314 net101
*315 net102
*316 net103
*317 net104
*318 net105
*319 net106
*320 net107
*321 net108
*322 net81
*323 net109
*324 net110
*325 net111
*326 net112
*327 net113
*328 net114
*329 net115
*330 net116
*331 net117
*332 net118
*333 net82
*334 net119
*335 net120
*336 net121
*337 net122
*338 net123
*339 net124
*340 net125
*341 net126
*342 net127
*343 net128
*344 net83
*345 net129
*346 net130
*347 net131
*348 net132
*349 net133
*350 net134
*351 net135
*352 net136
*353 net137
*354 net138
*355 net84
*356 net139
*357 net140
*358 net141
*359 net142
*360 net143
*361 net144
*362 net145
*363 net146
*364 net147
*365 net148
*366 net85
*367 net149
*368 net150
*369 net151
*370 net152
*371 net153
*372 net154
*373 net155
*374 net156
*375 net157
*376 net158
*377 net86
*378 net159
*379 net160
*380 net161
*381 net162
*382 net163
*383 net164
*384 net165
*385 net166
*386 net167
*387 net168
*388 net87
*389 net169
*390 net170
*391 net171
*392 net172
*393 net173
*394 net174
*395 net175
*396 net176
*397 net177
*398 net178
*399 net88
*400 la_oenb[0]
*401 la_oenb[100]
*402 la_oenb[101]
*403 la_oenb[102]
*404 la_oenb[103]
*405 la_oenb[104]
*406 la_oenb[105]
*407 la_oenb[106]
*408 la_oenb[107]
*409 la_oenb[108]
*410 la_oenb[109]
*411 la_oenb[10]
*412 la_oenb[110]
*413 la_oenb[111]
*414 la_oenb[112]
*415 la_oenb[113]
*416 la_oenb[114]
*417 la_oenb[115]
*418 la_oenb[116]
*419 la_oenb[117]
*420 la_oenb[118]
*421 la_oenb[119]
*422 la_oenb[11]
*423 la_oenb[120]
*424 la_oenb[121]
*425 la_oenb[122]
*426 la_oenb[123]
*427 la_oenb[124]
*428 la_oenb[125]
*429 la_oenb[126]
*430 la_oenb[127]
*431 la_oenb[12]
*432 la_oenb[13]
*433 la_oenb[14]
*434 la_oenb[15]
*435 la_oenb[16]
*436 la_oenb[17]
*437 la_oenb[18]
*438 la_oenb[19]
*439 la_oenb[1]
*440 la_oenb[20]
*441 la_oenb[21]
*442 la_oenb[22]
*443 la_oenb[23]
*444 la_oenb[24]
*445 la_oenb[25]
*446 la_oenb[26]
*447 la_oenb[27]
*448 la_oenb[28]
*449 la_oenb[29]
*450 la_oenb[2]
*451 la_oenb[30]
*452 la_oenb[31]
*453 la_oenb[32]
*454 la_oenb[33]
*455 la_oenb[34]
*456 la_oenb[35]
*457 la_oenb[36]
*458 la_oenb[37]
*459 la_oenb[38]
*460 la_oenb[39]
*461 la_oenb[3]
*462 la_oenb[40]
*463 la_oenb[41]
*464 la_oenb[42]
*465 la_oenb[43]
*466 la_oenb[44]
*467 la_oenb[45]
*468 la_oenb[46]
*469 la_oenb[47]
*470 la_oenb[48]
*471 la_oenb[49]
*472 la_oenb[4]
*473 la_oenb[50]
*474 la_oenb[51]
*475 la_oenb[52]
*476 la_oenb[53]
*477 la_oenb[54]
*478 la_oenb[55]
*479 la_oenb[56]
*480 la_oenb[57]
*481 la_oenb[58]
*482 la_oenb[59]
*483 la_oenb[5]
*484 la_oenb[60]
*485 la_oenb[61]
*486 la_oenb[62]
*487 la_oenb[63]
*488 la_oenb[64]
*489 la_oenb[65]
*490 la_oenb[66]
*491 la_oenb[67]
*492 la_oenb[68]
*493 la_oenb[69]
*494 la_oenb[6]
*495 la_oenb[70]
*496 la_oenb[71]
*497 la_oenb[72]
*498 la_oenb[73]
*499 la_oenb[74]
*500 la_oenb[75]
*501 la_oenb[76]
*502 la_oenb[77]
*503 la_oenb[78]
*504 la_oenb[79]
*505 la_oenb[7]
*506 la_oenb[80]
*507 la_oenb[81]
*508 la_oenb[82]
*509 la_oenb[83]
*510 la_oenb[84]
*511 la_oenb[85]
*512 la_oenb[86]
*513 la_oenb[87]
*514 la_oenb[88]
*515 la_oenb[89]
*516 la_oenb[8]
*517 la_oenb[90]
*518 la_oenb[91]
*519 la_oenb[92]
*520 la_oenb[93]
*521 la_oenb[94]
*522 la_oenb[95]
*523 la_oenb[96]
*524 la_oenb[97]
*525 la_oenb[98]
*526 la_oenb[99]
*527 la_oenb[9]
*528 net207
*529 net208
*530 user_irq[2]
*533 wb_clk_i
*534 wb_rst_i
*535 net209
*536 wbs_adr_i[0]
*537 wbs_adr_i[10]
*538 wbs_adr_i[11]
*539 wbs_adr_i[12]
*540 wbs_adr_i[13]
*541 wbs_adr_i[14]
*542 wbs_adr_i[15]
*543 wbs_adr_i[16]
*544 wbs_adr_i[17]
*545 wbs_adr_i[18]
*546 wbs_adr_i[19]
*547 wbs_adr_i[1]
*548 wbs_adr_i[20]
*549 wbs_adr_i[21]
*550 wbs_adr_i[22]
*551 wbs_adr_i[23]
*552 wbs_adr_i[24]
*553 wbs_adr_i[25]
*554 wbs_adr_i[26]
*555 wbs_adr_i[27]
*556 wbs_adr_i[28]
*557 wbs_adr_i[29]
*558 wbs_adr_i[2]
*559 wbs_adr_i[30]
*560 wbs_adr_i[31]
*561 wbs_adr_i[3]
*562 wbs_adr_i[4]
*563 wbs_adr_i[5]
*564 wbs_adr_i[6]
*565 wbs_adr_i[7]
*566 wbs_adr_i[8]
*567 wbs_adr_i[9]
*568 wbs_cyc_i
*569 wbs_dat_i[0]
*570 wbs_dat_i[10]
*571 wbs_dat_i[11]
*572 wbs_dat_i[12]
*573 wbs_dat_i[13]
*574 wbs_dat_i[14]
*575 wbs_dat_i[15]
*576 wbs_dat_i[16]
*577 wbs_dat_i[17]
*578 wbs_dat_i[18]
*579 wbs_dat_i[19]
*580 wbs_dat_i[1]
*581 wbs_dat_i[20]
*582 wbs_dat_i[21]
*583 wbs_dat_i[22]
*584 wbs_dat_i[23]
*585 wbs_dat_i[24]
*586 wbs_dat_i[25]
*587 wbs_dat_i[26]
*588 wbs_dat_i[27]
*589 wbs_dat_i[28]
*590 wbs_dat_i[29]
*591 wbs_dat_i[2]
*592 wbs_dat_i[30]
*593 wbs_dat_i[31]
*594 wbs_dat_i[3]
*595 wbs_dat_i[4]
*596 wbs_dat_i[5]
*597 wbs_dat_i[6]
*598 wbs_dat_i[7]
*599 wbs_dat_i[8]
*600 wbs_dat_i[9]
*601 net210
*602 net220
*603 net221
*604 net222
*605 net223
*606 net224
*607 net225
*608 net226
*609 net227
*610 net228
*611 net229
*612 net211
*613 net230
*614 net231
*615 net232
*616 net233
*617 net234
*618 net235
*619 net236
*620 net237
*621 net238
*622 net239
*623 net212
*624 net240
*625 net241
*626 net213
*627 net214
*628 net215
*629 net216
*630 net217
*631 net218
*632 net219
*633 wbs_sel_i[0]
*634 wbs_sel_i[1]
*635 wbs_sel_i[2]
*636 wbs_sel_i[3]
*637 wbs_stb_i
*638 wbs_we_i
*639 _000_
*640 _001_
*641 _002_
*642 _003_
*643 _004_
*644 _005_
*645 _006_
*646 _007_
*647 _008_
*648 _009_
*649 _010_
*650 _011_
*651 _012_
*652 _013_
*653 _014_
*654 _015_
*655 _016_
*656 _017_
*657 _018_
*658 _019_
*659 _020_
*660 _021_
*661 _023_
*662 _024_
*663 _025_
*664 _026_
*665 _027_
*666 _028_
*667 _029_
*668 _030_
*669 _031_
*670 _032_
*671 _033_
*672 _034_
*673 _035_
*674 _036_
*675 _037_
*676 _038_
*677 _039_
*678 _040_
*679 _041_
*680 _042_
*681 _043_
*682 _044_
*683 _045_
*684 _046_
*685 _047_
*686 _048_
*687 _049_
*688 _050_
*689 _051_
*690 _052_
*691 _053_
*692 _054_
*693 _055_
*694 _056_
*695 _057_
*696 _058_
*697 _059_
*698 _060_
*699 basic_0\.RESETN_inv
*700 basic_0\.RESETN_inv_buf
*701 basic_0\._RESETN_inv_1
*702 basic_0\._maxi_cond_1_1
*703 basic_0\._saxi_register_10\[3\]
*704 basic_0\._saxi_register_11\[3\]
*705 basic_0\._saxi_register_9\[3\]
*706 basic_0\._saxi_register_fsm\[0\]
*707 basic_0\._saxi_register_fsm\[2\]
*708 basic_0\.addr_11\[2\]
*709 basic_0\.addr_11\[3\]
*710 basic_0\.addr_11\[4\]
*711 basic_0\.addr_11\[5\]
*712 basic_0\.addr_11\[6\]
*713 basic_0\.addr_11\[7\]
*714 basic_0\.axis_maskaddr_16\[0\]
*715 basic_0\.axis_maskaddr_16\[1\]
*716 basic_0\.axis_maskaddr_16\[2\]
*717 basic_0\.axis_maskaddr_16\[3\]
*718 basic_0\.axis_maskaddr_16\[4\]
*719 basic_0\.axis_maskaddr_16\[5\]
*720 basic_0\.readvalid_13
*721 basic_0\.saxi_bvalid
*722 basic_0\.saxi_wready
*723 basic_0\.writevalid_12
*724 clknet_0_wb_clk_i
*725 clknet_1_0_0_wb_clk_i
*726 clknet_1_1_0_wb_clk_i
*727 net1
*728 net2
*729 net242
*730 net243
*731 ANTENNA_clkbuf_0_wb_clk_i_A
*732 ANTENNA_input1_A
*733 ANTENNA_output2_A
*734 FILLER_0_1001
*735 FILLER_0_1007
*736 FILLER_0_101
*737 FILLER_0_1012
*738 FILLER_0_1017
*739 FILLER_0_1021
*740 FILLER_0_1025
*741 FILLER_0_1029
*742 FILLER_0_1033
*743 FILLER_0_1040
*744 FILLER_0_1044
*745 FILLER_0_1048
*746 FILLER_0_1052
*747 FILLER_0_1056
*748 FILLER_0_1068
*749 FILLER_0_1072
*750 FILLER_0_1076
*751 FILLER_0_1080
*752 FILLER_0_1087
*753 FILLER_0_1091
*754 FILLER_0_1096
*755 FILLER_0_1103
*756 FILLER_0_1107
*757 FILLER_0_111
*758 FILLER_0_1111
*759 FILLER_0_1115
*760 FILLER_0_1119
*761 FILLER_0_1121
*762 FILLER_0_1127
*763 FILLER_0_1134
*764 FILLER_0_1138
*765 FILLER_0_1142
*766 FILLER_0_1152
*767 FILLER_0_1158
*768 FILLER_0_1162
*769 FILLER_0_1166
*770 FILLER_0_1170
*771 FILLER_0_1174
*772 FILLER_0_1177
*773 FILLER_0_1182
*774 FILLER_0_1189
*775 FILLER_0_119
*776 FILLER_0_1193
*777 FILLER_0_1197
*778 FILLER_0_1203
*779 FILLER_0_1208
*780 FILLER_0_1213
*781 FILLER_0_1217
*782 FILLER_0_1221
*783 FILLER_0_1225
*784 FILLER_0_1229
*785 FILLER_0_1236
*786 FILLER_0_124
*787 FILLER_0_1240
*788 FILLER_0_1244
*789 FILLER_0_1248
*790 FILLER_0_1252
*791 FILLER_0_1264
*792 FILLER_0_1268
*793 FILLER_0_1273
*794 FILLER_0_128
*795 FILLER_0_13
*796 FILLER_0_132
*797 FILLER_0_136
*798 FILLER_0_144
*799 FILLER_0_148
*800 FILLER_0_152
*801 FILLER_0_156
*802 FILLER_0_160
*803 FILLER_0_164
*804 FILLER_0_172
*805 FILLER_0_176
*806 FILLER_0_181
*807 FILLER_0_188
*808 FILLER_0_20
*809 FILLER_0_200
*810 FILLER_0_204
*811 FILLER_0_208
*812 FILLER_0_212
*813 FILLER_0_216
*814 FILLER_0_220
*815 FILLER_0_228
*816 FILLER_0_232
*817 FILLER_0_236
*818 FILLER_0_24
*819 FILLER_0_243
*820 FILLER_0_247
*821 FILLER_0_251
*822 FILLER_0_253
*823 FILLER_0_259
*824 FILLER_0_263
*825 FILLER_0_267
*826 FILLER_0_272
*827 FILLER_0_284
*828 FILLER_0_288
*829 FILLER_0_292
*830 FILLER_0_296
*831 FILLER_0_303
*832 FILLER_0_307
*833 FILLER_0_312
*834 FILLER_0_319
*835 FILLER_0_32
*836 FILLER_0_323
*837 FILLER_0_327
*838 FILLER_0_331
*839 FILLER_0_335
*840 FILLER_0_337
*841 FILLER_0_343
*842 FILLER_0_347
*843 FILLER_0_351
*844 FILLER_0_358
*845 FILLER_0_368
*846 FILLER_0_374
*847 FILLER_0_378
*848 FILLER_0_38
*849 FILLER_0_382
*850 FILLER_0_386
*851 FILLER_0_390
*852 FILLER_0_393
*853 FILLER_0_398
*854 FILLER_0_405
*855 FILLER_0_409
*856 FILLER_0_413
*857 FILLER_0_419
*858 FILLER_0_424
*859 FILLER_0_429
*860 FILLER_0_433
*861 FILLER_0_437
*862 FILLER_0_441
*863 FILLER_0_445
*864 FILLER_0_452
*865 FILLER_0_456
*866 FILLER_0_460
*867 FILLER_0_464
*868 FILLER_0_468
*869 FILLER_0_480
*870 FILLER_0_484
*871 FILLER_0_488
*872 FILLER_0_492
*873 FILLER_0_499
*874 FILLER_0_503
*875 FILLER_0_508
*876 FILLER_0_515
*877 FILLER_0_519
*878 FILLER_0_523
*879 FILLER_0_527
*880 FILLER_0_531
*881 FILLER_0_533
*882 FILLER_0_539
*883 FILLER_0_543
*884 FILLER_0_547
*885 FILLER_0_55
*886 FILLER_0_554
*887 FILLER_0_564
*888 FILLER_0_570
*889 FILLER_0_574
*890 FILLER_0_578
*891 FILLER_0_582
*892 FILLER_0_586
*893 FILLER_0_589
*894 FILLER_0_594
*895 FILLER_0_6
*896 FILLER_0_601
*897 FILLER_0_605
*898 FILLER_0_609
*899 FILLER_0_615
*900 FILLER_0_620
*901 FILLER_0_625
*902 FILLER_0_629
*903 FILLER_0_633
*904 FILLER_0_637
*905 FILLER_0_641
*906 FILLER_0_648
*907 FILLER_0_65
*908 FILLER_0_652
*909 FILLER_0_656
*910 FILLER_0_660
*911 FILLER_0_664
*912 FILLER_0_676
*913 FILLER_0_680
*914 FILLER_0_684
*915 FILLER_0_688
*916 FILLER_0_695
*917 FILLER_0_699
*918 FILLER_0_704
*919 FILLER_0_711
*920 FILLER_0_715
*921 FILLER_0_719
*922 FILLER_0_723
*923 FILLER_0_727
*924 FILLER_0_729
*925 FILLER_0_735
*926 FILLER_0_742
*927 FILLER_0_746
*928 FILLER_0_750
*929 FILLER_0_760
*930 FILLER_0_766
*931 FILLER_0_770
*932 FILLER_0_774
*933 FILLER_0_778
*934 FILLER_0_782
*935 FILLER_0_785
*936 FILLER_0_790
*937 FILLER_0_797
*938 FILLER_0_801
*939 FILLER_0_805
*940 FILLER_0_811
*941 FILLER_0_816
*942 FILLER_0_82
*943 FILLER_0_821
*944 FILLER_0_825
*945 FILLER_0_829
*946 FILLER_0_833
*947 FILLER_0_837
*948 FILLER_0_844
*949 FILLER_0_848
*950 FILLER_0_852
*951 FILLER_0_856
*952 FILLER_0_860
*953 FILLER_0_872
*954 FILLER_0_876
*955 FILLER_0_880
*956 FILLER_0_884
*957 FILLER_0_891
*958 FILLER_0_895
*959 FILLER_0_900
*960 FILLER_0_907
*961 FILLER_0_911
*962 FILLER_0_915
*963 FILLER_0_919
*964 FILLER_0_923
*965 FILLER_0_925
*966 FILLER_0_931
*967 FILLER_0_938
*968 FILLER_0_942
*969 FILLER_0_946
*970 FILLER_0_956
*971 FILLER_0_962
*972 FILLER_0_966
*973 FILLER_0_970
*974 FILLER_0_974
*975 FILLER_0_978
*976 FILLER_0_981
*977 FILLER_0_986
*978 FILLER_0_993
*979 FILLER_0_997
*980 FILLER_100_1005
*981 FILLER_100_1017
*982 FILLER_100_1029
*983 FILLER_100_1035
*984 FILLER_100_1037
*985 FILLER_100_1049
*986 FILLER_100_1061
*987 FILLER_100_1073
*988 FILLER_100_1085
*989 FILLER_100_109
*990 FILLER_100_1091
*991 FILLER_100_1093
*992 FILLER_100_1105
*993 FILLER_100_1117
*994 FILLER_100_1129
*995 FILLER_100_1141
*996 FILLER_100_1147
*997 FILLER_100_1149
*998 FILLER_100_1161
*999 FILLER_100_1173
*1000 FILLER_100_1185
*1001 FILLER_100_1197
*1002 FILLER_100_1203
*1003 FILLER_100_1205
*1004 FILLER_100_121
*1005 FILLER_100_1217
*1006 FILLER_100_1229
*1007 FILLER_100_1241
*1008 FILLER_100_1253
*1009 FILLER_100_1259
*1010 FILLER_100_1261
*1011 FILLER_100_1273
*1012 FILLER_100_133
*1013 FILLER_100_139
*1014 FILLER_100_141
*1015 FILLER_100_15
*1016 FILLER_100_153
*1017 FILLER_100_165
*1018 FILLER_100_177
*1019 FILLER_100_189
*1020 FILLER_100_195
*1021 FILLER_100_197
*1022 FILLER_100_209
*1023 FILLER_100_221
*1024 FILLER_100_233
*1025 FILLER_100_245
*1026 FILLER_100_251
*1027 FILLER_100_253
*1028 FILLER_100_265
*1029 FILLER_100_27
*1030 FILLER_100_277
*1031 FILLER_100_289
*1032 FILLER_100_29
*1033 FILLER_100_3
*1034 FILLER_100_301
*1035 FILLER_100_307
*1036 FILLER_100_309
*1037 FILLER_100_321
*1038 FILLER_100_333
*1039 FILLER_100_345
*1040 FILLER_100_357
*1041 FILLER_100_363
*1042 FILLER_100_365
*1043 FILLER_100_377
*1044 FILLER_100_389
*1045 FILLER_100_401
*1046 FILLER_100_41
*1047 FILLER_100_413
*1048 FILLER_100_419
*1049 FILLER_100_421
*1050 FILLER_100_433
*1051 FILLER_100_445
*1052 FILLER_100_457
*1053 FILLER_100_469
*1054 FILLER_100_475
*1055 FILLER_100_477
*1056 FILLER_100_489
*1057 FILLER_100_501
*1058 FILLER_100_513
*1059 FILLER_100_525
*1060 FILLER_100_53
*1061 FILLER_100_531
*1062 FILLER_100_533
*1063 FILLER_100_545
*1064 FILLER_100_557
*1065 FILLER_100_569
*1066 FILLER_100_581
*1067 FILLER_100_587
*1068 FILLER_100_589
*1069 FILLER_100_601
*1070 FILLER_100_613
*1071 FILLER_100_625
*1072 FILLER_100_637
*1073 FILLER_100_643
*1074 FILLER_100_645
*1075 FILLER_100_65
*1076 FILLER_100_657
*1077 FILLER_100_669
*1078 FILLER_100_681
*1079 FILLER_100_693
*1080 FILLER_100_699
*1081 FILLER_100_701
*1082 FILLER_100_713
*1083 FILLER_100_725
*1084 FILLER_100_737
*1085 FILLER_100_749
*1086 FILLER_100_755
*1087 FILLER_100_757
*1088 FILLER_100_769
*1089 FILLER_100_77
*1090 FILLER_100_781
*1091 FILLER_100_793
*1092 FILLER_100_805
*1093 FILLER_100_811
*1094 FILLER_100_813
*1095 FILLER_100_825
*1096 FILLER_100_83
*1097 FILLER_100_837
*1098 FILLER_100_849
*1099 FILLER_100_85
*1100 FILLER_100_861
*1101 FILLER_100_867
*1102 FILLER_100_869
*1103 FILLER_100_881
*1104 FILLER_100_893
*1105 FILLER_100_905
*1106 FILLER_100_917
*1107 FILLER_100_923
*1108 FILLER_100_925
*1109 FILLER_100_937
*1110 FILLER_100_949
*1111 FILLER_100_961
*1112 FILLER_100_97
*1113 FILLER_100_973
*1114 FILLER_100_979
*1115 FILLER_100_981
*1116 FILLER_100_993
*1117 FILLER_101_1001
*1118 FILLER_101_1007
*1119 FILLER_101_1009
*1120 FILLER_101_1021
*1121 FILLER_101_1033
*1122 FILLER_101_1045
*1123 FILLER_101_105
*1124 FILLER_101_1057
*1125 FILLER_101_1063
*1126 FILLER_101_1065
*1127 FILLER_101_1077
*1128 FILLER_101_1089
*1129 FILLER_101_1101
*1130 FILLER_101_111
*1131 FILLER_101_1113
*1132 FILLER_101_1119
*1133 FILLER_101_1121
*1134 FILLER_101_113
*1135 FILLER_101_1133
*1136 FILLER_101_1145
*1137 FILLER_101_1157
*1138 FILLER_101_1169
*1139 FILLER_101_1175
*1140 FILLER_101_1177
*1141 FILLER_101_1189
*1142 FILLER_101_1201
*1143 FILLER_101_1213
*1144 FILLER_101_1225
*1145 FILLER_101_1231
*1146 FILLER_101_1233
*1147 FILLER_101_1245
*1148 FILLER_101_125
*1149 FILLER_101_1257
*1150 FILLER_101_1269
*1151 FILLER_101_137
*1152 FILLER_101_149
*1153 FILLER_101_15
*1154 FILLER_101_161
*1155 FILLER_101_167
*1156 FILLER_101_169
*1157 FILLER_101_181
*1158 FILLER_101_193
*1159 FILLER_101_205
*1160 FILLER_101_217
*1161 FILLER_101_223
*1162 FILLER_101_225
*1163 FILLER_101_237
*1164 FILLER_101_249
*1165 FILLER_101_261
*1166 FILLER_101_27
*1167 FILLER_101_273
*1168 FILLER_101_279
*1169 FILLER_101_281
*1170 FILLER_101_293
*1171 FILLER_101_3
*1172 FILLER_101_305
*1173 FILLER_101_317
*1174 FILLER_101_329
*1175 FILLER_101_335
*1176 FILLER_101_337
*1177 FILLER_101_349
*1178 FILLER_101_361
*1179 FILLER_101_373
*1180 FILLER_101_385
*1181 FILLER_101_39
*1182 FILLER_101_391
*1183 FILLER_101_393
*1184 FILLER_101_405
*1185 FILLER_101_417
*1186 FILLER_101_429
*1187 FILLER_101_441
*1188 FILLER_101_447
*1189 FILLER_101_449
*1190 FILLER_101_461
*1191 FILLER_101_473
*1192 FILLER_101_485
*1193 FILLER_101_497
*1194 FILLER_101_503
*1195 FILLER_101_505
*1196 FILLER_101_51
*1197 FILLER_101_517
*1198 FILLER_101_529
*1199 FILLER_101_541
*1200 FILLER_101_55
*1201 FILLER_101_553
*1202 FILLER_101_559
*1203 FILLER_101_561
*1204 FILLER_101_57
*1205 FILLER_101_573
*1206 FILLER_101_585
*1207 FILLER_101_597
*1208 FILLER_101_609
*1209 FILLER_101_615
*1210 FILLER_101_617
*1211 FILLER_101_629
*1212 FILLER_101_641
*1213 FILLER_101_653
*1214 FILLER_101_665
*1215 FILLER_101_671
*1216 FILLER_101_673
*1217 FILLER_101_685
*1218 FILLER_101_69
*1219 FILLER_101_697
*1220 FILLER_101_709
*1221 FILLER_101_721
*1222 FILLER_101_727
*1223 FILLER_101_729
*1224 FILLER_101_741
*1225 FILLER_101_753
*1226 FILLER_101_765
*1227 FILLER_101_777
*1228 FILLER_101_783
*1229 FILLER_101_785
*1230 FILLER_101_797
*1231 FILLER_101_809
*1232 FILLER_101_81
*1233 FILLER_101_821
*1234 FILLER_101_833
*1235 FILLER_101_839
*1236 FILLER_101_841
*1237 FILLER_101_853
*1238 FILLER_101_865
*1239 FILLER_101_877
*1240 FILLER_101_889
*1241 FILLER_101_895
*1242 FILLER_101_897
*1243 FILLER_101_909
*1244 FILLER_101_921
*1245 FILLER_101_93
*1246 FILLER_101_933
*1247 FILLER_101_945
*1248 FILLER_101_951
*1249 FILLER_101_953
*1250 FILLER_101_965
*1251 FILLER_101_977
*1252 FILLER_101_989
*1253 FILLER_102_1005
*1254 FILLER_102_1017
*1255 FILLER_102_1029
*1256 FILLER_102_1035
*1257 FILLER_102_1037
*1258 FILLER_102_1049
*1259 FILLER_102_1061
*1260 FILLER_102_1073
*1261 FILLER_102_1085
*1262 FILLER_102_109
*1263 FILLER_102_1091
*1264 FILLER_102_1093
*1265 FILLER_102_1105
*1266 FILLER_102_1117
*1267 FILLER_102_1129
*1268 FILLER_102_1141
*1269 FILLER_102_1147
*1270 FILLER_102_1149
*1271 FILLER_102_1161
*1272 FILLER_102_1173
*1273 FILLER_102_1185
*1274 FILLER_102_1197
*1275 FILLER_102_1203
*1276 FILLER_102_1205
*1277 FILLER_102_121
*1278 FILLER_102_1217
*1279 FILLER_102_1229
*1280 FILLER_102_1241
*1281 FILLER_102_1253
*1282 FILLER_102_1259
*1283 FILLER_102_1261
*1284 FILLER_102_1273
*1285 FILLER_102_133
*1286 FILLER_102_139
*1287 FILLER_102_141
*1288 FILLER_102_15
*1289 FILLER_102_153
*1290 FILLER_102_165
*1291 FILLER_102_177
*1292 FILLER_102_189
*1293 FILLER_102_195
*1294 FILLER_102_197
*1295 FILLER_102_209
*1296 FILLER_102_221
*1297 FILLER_102_233
*1298 FILLER_102_245
*1299 FILLER_102_251
*1300 FILLER_102_253
*1301 FILLER_102_265
*1302 FILLER_102_27
*1303 FILLER_102_277
*1304 FILLER_102_289
*1305 FILLER_102_29
*1306 FILLER_102_3
*1307 FILLER_102_301
*1308 FILLER_102_307
*1309 FILLER_102_309
*1310 FILLER_102_321
*1311 FILLER_102_333
*1312 FILLER_102_345
*1313 FILLER_102_357
*1314 FILLER_102_363
*1315 FILLER_102_365
*1316 FILLER_102_377
*1317 FILLER_102_389
*1318 FILLER_102_401
*1319 FILLER_102_41
*1320 FILLER_102_413
*1321 FILLER_102_419
*1322 FILLER_102_421
*1323 FILLER_102_433
*1324 FILLER_102_445
*1325 FILLER_102_457
*1326 FILLER_102_469
*1327 FILLER_102_475
*1328 FILLER_102_477
*1329 FILLER_102_489
*1330 FILLER_102_501
*1331 FILLER_102_513
*1332 FILLER_102_525
*1333 FILLER_102_53
*1334 FILLER_102_531
*1335 FILLER_102_533
*1336 FILLER_102_545
*1337 FILLER_102_557
*1338 FILLER_102_569
*1339 FILLER_102_581
*1340 FILLER_102_587
*1341 FILLER_102_589
*1342 FILLER_102_601
*1343 FILLER_102_613
*1344 FILLER_102_625
*1345 FILLER_102_637
*1346 FILLER_102_643
*1347 FILLER_102_645
*1348 FILLER_102_65
*1349 FILLER_102_657
*1350 FILLER_102_669
*1351 FILLER_102_681
*1352 FILLER_102_693
*1353 FILLER_102_699
*1354 FILLER_102_701
*1355 FILLER_102_713
*1356 FILLER_102_725
*1357 FILLER_102_737
*1358 FILLER_102_749
*1359 FILLER_102_755
*1360 FILLER_102_757
*1361 FILLER_102_769
*1362 FILLER_102_77
*1363 FILLER_102_781
*1364 FILLER_102_793
*1365 FILLER_102_805
*1366 FILLER_102_811
*1367 FILLER_102_813
*1368 FILLER_102_825
*1369 FILLER_102_83
*1370 FILLER_102_837
*1371 FILLER_102_849
*1372 FILLER_102_85
*1373 FILLER_102_861
*1374 FILLER_102_867
*1375 FILLER_102_869
*1376 FILLER_102_881
*1377 FILLER_102_893
*1378 FILLER_102_905
*1379 FILLER_102_917
*1380 FILLER_102_923
*1381 FILLER_102_925
*1382 FILLER_102_937
*1383 FILLER_102_949
*1384 FILLER_102_961
*1385 FILLER_102_97
*1386 FILLER_102_973
*1387 FILLER_102_979
*1388 FILLER_102_981
*1389 FILLER_102_993
*1390 FILLER_103_1001
*1391 FILLER_103_1007
*1392 FILLER_103_1009
*1393 FILLER_103_1021
*1394 FILLER_103_1033
*1395 FILLER_103_1045
*1396 FILLER_103_105
*1397 FILLER_103_1057
*1398 FILLER_103_1063
*1399 FILLER_103_1065
*1400 FILLER_103_1077
*1401 FILLER_103_1089
*1402 FILLER_103_1101
*1403 FILLER_103_111
*1404 FILLER_103_1113
*1405 FILLER_103_1119
*1406 FILLER_103_1121
*1407 FILLER_103_113
*1408 FILLER_103_1133
*1409 FILLER_103_1145
*1410 FILLER_103_1157
*1411 FILLER_103_1169
*1412 FILLER_103_1175
*1413 FILLER_103_1177
*1414 FILLER_103_1189
*1415 FILLER_103_1201
*1416 FILLER_103_1213
*1417 FILLER_103_1225
*1418 FILLER_103_1231
*1419 FILLER_103_1233
*1420 FILLER_103_1245
*1421 FILLER_103_125
*1422 FILLER_103_1257
*1423 FILLER_103_1269
*1424 FILLER_103_137
*1425 FILLER_103_149
*1426 FILLER_103_15
*1427 FILLER_103_161
*1428 FILLER_103_167
*1429 FILLER_103_169
*1430 FILLER_103_181
*1431 FILLER_103_193
*1432 FILLER_103_205
*1433 FILLER_103_217
*1434 FILLER_103_223
*1435 FILLER_103_225
*1436 FILLER_103_237
*1437 FILLER_103_249
*1438 FILLER_103_261
*1439 FILLER_103_27
*1440 FILLER_103_273
*1441 FILLER_103_279
*1442 FILLER_103_281
*1443 FILLER_103_293
*1444 FILLER_103_3
*1445 FILLER_103_305
*1446 FILLER_103_317
*1447 FILLER_103_329
*1448 FILLER_103_335
*1449 FILLER_103_337
*1450 FILLER_103_349
*1451 FILLER_103_361
*1452 FILLER_103_373
*1453 FILLER_103_385
*1454 FILLER_103_39
*1455 FILLER_103_391
*1456 FILLER_103_393
*1457 FILLER_103_405
*1458 FILLER_103_417
*1459 FILLER_103_429
*1460 FILLER_103_441
*1461 FILLER_103_447
*1462 FILLER_103_449
*1463 FILLER_103_461
*1464 FILLER_103_473
*1465 FILLER_103_485
*1466 FILLER_103_497
*1467 FILLER_103_503
*1468 FILLER_103_505
*1469 FILLER_103_51
*1470 FILLER_103_517
*1471 FILLER_103_529
*1472 FILLER_103_541
*1473 FILLER_103_55
*1474 FILLER_103_553
*1475 FILLER_103_559
*1476 FILLER_103_561
*1477 FILLER_103_57
*1478 FILLER_103_573
*1479 FILLER_103_585
*1480 FILLER_103_597
*1481 FILLER_103_609
*1482 FILLER_103_615
*1483 FILLER_103_617
*1484 FILLER_103_629
*1485 FILLER_103_641
*1486 FILLER_103_653
*1487 FILLER_103_665
*1488 FILLER_103_671
*1489 FILLER_103_673
*1490 FILLER_103_685
*1491 FILLER_103_69
*1492 FILLER_103_697
*1493 FILLER_103_709
*1494 FILLER_103_721
*1495 FILLER_103_727
*1496 FILLER_103_729
*1497 FILLER_103_741
*1498 FILLER_103_753
*1499 FILLER_103_765
*1500 FILLER_103_777
*1501 FILLER_103_783
*1502 FILLER_103_785
*1503 FILLER_103_797
*1504 FILLER_103_809
*1505 FILLER_103_81
*1506 FILLER_103_821
*1507 FILLER_103_833
*1508 FILLER_103_839
*1509 FILLER_103_841
*1510 FILLER_103_853
*1511 FILLER_103_865
*1512 FILLER_103_877
*1513 FILLER_103_889
*1514 FILLER_103_895
*1515 FILLER_103_897
*1516 FILLER_103_909
*1517 FILLER_103_921
*1518 FILLER_103_93
*1519 FILLER_103_933
*1520 FILLER_103_945
*1521 FILLER_103_951
*1522 FILLER_103_953
*1523 FILLER_103_965
*1524 FILLER_103_977
*1525 FILLER_103_989
*1526 FILLER_104_1005
*1527 FILLER_104_1017
*1528 FILLER_104_1029
*1529 FILLER_104_1035
*1530 FILLER_104_1037
*1531 FILLER_104_1049
*1532 FILLER_104_1061
*1533 FILLER_104_1073
*1534 FILLER_104_1085
*1535 FILLER_104_109
*1536 FILLER_104_1091
*1537 FILLER_104_1093
*1538 FILLER_104_1105
*1539 FILLER_104_1117
*1540 FILLER_104_1129
*1541 FILLER_104_1141
*1542 FILLER_104_1147
*1543 FILLER_104_1149
*1544 FILLER_104_1161
*1545 FILLER_104_1173
*1546 FILLER_104_1185
*1547 FILLER_104_1197
*1548 FILLER_104_1203
*1549 FILLER_104_1205
*1550 FILLER_104_121
*1551 FILLER_104_1217
*1552 FILLER_104_1229
*1553 FILLER_104_1241
*1554 FILLER_104_1253
*1555 FILLER_104_1259
*1556 FILLER_104_1261
*1557 FILLER_104_1273
*1558 FILLER_104_133
*1559 FILLER_104_139
*1560 FILLER_104_141
*1561 FILLER_104_15
*1562 FILLER_104_153
*1563 FILLER_104_165
*1564 FILLER_104_177
*1565 FILLER_104_189
*1566 FILLER_104_195
*1567 FILLER_104_197
*1568 FILLER_104_209
*1569 FILLER_104_221
*1570 FILLER_104_233
*1571 FILLER_104_245
*1572 FILLER_104_251
*1573 FILLER_104_253
*1574 FILLER_104_265
*1575 FILLER_104_27
*1576 FILLER_104_277
*1577 FILLER_104_289
*1578 FILLER_104_29
*1579 FILLER_104_3
*1580 FILLER_104_301
*1581 FILLER_104_307
*1582 FILLER_104_309
*1583 FILLER_104_321
*1584 FILLER_104_333
*1585 FILLER_104_345
*1586 FILLER_104_357
*1587 FILLER_104_363
*1588 FILLER_104_365
*1589 FILLER_104_377
*1590 FILLER_104_389
*1591 FILLER_104_401
*1592 FILLER_104_41
*1593 FILLER_104_413
*1594 FILLER_104_419
*1595 FILLER_104_421
*1596 FILLER_104_433
*1597 FILLER_104_445
*1598 FILLER_104_457
*1599 FILLER_104_469
*1600 FILLER_104_475
*1601 FILLER_104_477
*1602 FILLER_104_489
*1603 FILLER_104_501
*1604 FILLER_104_513
*1605 FILLER_104_525
*1606 FILLER_104_53
*1607 FILLER_104_531
*1608 FILLER_104_533
*1609 FILLER_104_545
*1610 FILLER_104_557
*1611 FILLER_104_569
*1612 FILLER_104_581
*1613 FILLER_104_587
*1614 FILLER_104_589
*1615 FILLER_104_601
*1616 FILLER_104_613
*1617 FILLER_104_625
*1618 FILLER_104_637
*1619 FILLER_104_643
*1620 FILLER_104_645
*1621 FILLER_104_65
*1622 FILLER_104_657
*1623 FILLER_104_669
*1624 FILLER_104_681
*1625 FILLER_104_693
*1626 FILLER_104_699
*1627 FILLER_104_701
*1628 FILLER_104_713